% --- SOLVER ---
SOLVER= RANS
KIND_TURB_MODEL= SA
MATH_PROBLEM= DIRECT

% --- FLOW ---
MACH_NUMBER= 0.2
AOA= 0.0
FREESTREAM_TEMPERATURE= 288.15
FREESTREAM_PRESSURE= 101325.0
REYNOLDS_NUMBER= 5E6
REYNOLDS_LENGTH= 1.0

% --- BCs ---
MARKER_SYM= ( MARKER_SYM )
MARKER_INLET= ( MARKER_INLET, 288.15, 105000.0, 1.0, 0.0, 0.0 )
MARKER_OUTLET= ( MARKER_OUTLET, 101325.0 )
MARKER_FAR= ( MARKER_FAR )
MARKER_ISOTHERMAL= ( MARKER_WALL_HOT, 350.0, MARKER_WALL_COLD, 288.15 )

% --- NUMERICS ---
NUM_METHOD_GRAD= GREEN_GAUSS
CONV_NUM_METHOD_FLOW= JST
CONV_NUM_METHOD_TURB= SCALAR_UPWIND
CFL_NUMBER= 5.0

% --- RUN ---
ITER= 100
CONV_RESIDUAL_MINVAL= -8

% --- IO ---
MESH_FILENAME= flatplate_split.su2
MESH_FORMAT= SU2
OUTPUT_FILES= (RESTART, PARAVIEW, SURFACE_PARAVIEW)
SCREEN_OUTPUT= (INNER_ITER, WALL_TIME, RMS_DENSITY, RMS_NU_TILDE)
